Circuit: * C:\Users\tripl\Desktop\Personal Projects\OLED Guitar Pedal Project\LTSpice Circuits\guitar_waveform_clamp_sim.asc


Date: Tue Jul 09 18:12:56 2024
Total elapsed time: 0.064 seconds.

tnom = 27
temp = 27
method = trap
totiter = 190
traniter = 0
tranpoints = 0
accept = 0
rejected = 0
matrix size = 14
fillins = 4
solver = Normal
Matrix Compiler1: 1.08 KB object code size  0.1/0.1/[0.1]
Matrix Compiler2: 1.17 KB object code size  0.1/0.1/[0.1]

